Version 4
SHEET 1 1000 680
WIRE 384 -64 288 -64
WIRE 464 -64 384 -64
WIRE 560 -64 464 -64
WIRE 736 -64 656 -64
WIRE 816 -64 736 -64
WIRE 736 -32 736 -64
WIRE 816 -32 816 -64
WIRE 640 0 640 -16
WIRE 640 0 608 0
WIRE 384 32 384 0
WIRE 464 32 464 16
WIRE 464 32 384 32
WIRE 608 32 608 0
WIRE 608 32 464 32
WIRE 608 48 608 32
WIRE 160 64 16 64
WIRE 288 64 288 -64
WIRE 288 64 160 64
WIRE 368 64 288 64
WIRE 736 64 736 32
WIRE 816 64 816 48
WIRE 288 112 288 64
WIRE 16 128 16 64
WIRE 368 144 368 64
WIRE 432 144 368 144
WIRE 608 144 608 128
WIRE 608 144 512 144
WIRE 160 160 160 64
WIRE 608 176 608 144
WIRE 16 192 16 160
WIRE 288 224 288 192
WIRE 400 224 288 224
WIRE 464 224 400 224
WIRE 528 224 464 224
WIRE 288 240 288 224
WIRE 400 256 400 224
WIRE 464 256 464 224
WIRE 528 256 528 224
WIRE 160 272 160 240
WIRE 256 272 160 272
WIRE 160 320 160 272
FLAG 288 304 0
FLAG 160 400 0
FLAG 400 320 0
FLAG 464 320 0
FLAG 608 272 0
FLAG 816 64 0
FLAG 736 64 0
FLAG 16 192 0
FLAG 528 336 0
SYMBOL res 144 144 R0
SYMATTR InstName R1
SYMATTR Value 68k
SYMBOL res 144 304 R0
SYMATTR InstName R2
SYMATTR Value 4k7
SYMBOL res 272 96 R0
SYMATTR InstName R3
SYMATTR Value 100k
SYMBOL EXTRA\\VolReg\\TL431 272 240 R0
SYMATTR InstName U1
SYMBOL EXTRA\\Philips\\NMOSFET\\2N7002 576 224 R0
WINDOW 0 66 -20 Left 2
WINDOW 3 65 14 Left 2
SYMATTR InstName U2
SYMBOL res 592 32 R0
SYMATTR InstName R4
SYMATTR Value 40k
SYMBOL res 448 -80 R0
SYMATTR InstName R5
SYMATTR Value 100k
SYMBOL cap 448 256 R0
SYMATTR InstName C1
SYMATTR Value 0.1µ
SYMBOL cap 720 -32 R0
SYMATTR InstName C2
SYMATTR Value 0.1µ
SYMBOL res 800 -48 R0
SYMATTR InstName R6
SYMATTR Value 10k
SYMBOL res 528 128 R90
WINDOW 0 0 56 VBottom 2
WINDOW 3 32 56 VTop 2
SYMATTR InstName R7
SYMATTR Value 15k
SYMBOL EXTRA\\DIODES.COM\\ZENER\\BZT52C6V8 400 0 R180
WINDOW 0 57 133 Left 2
WINDOW 3 -44 104 Left 2
SYMATTR InstName U4
SYMBOL EXTRA\\DIODES.COM\\ZENER\\BZT52C6V8 416 320 R180
WINDOW 0 25 -27 Left 2
WINDOW 3 -82 -55 Left 2
SYMATTR InstName U5
SYMBOL MiniSyms4\\voltage- 16 144 R0
WINDOW 123 0 0 Left 2
WINDOW 39 0 0 Left 2
SYMATTR InstName V1
SYMATTR Value PULSE(0 100 0.005 0.001 0.001 0.01)
SYMBOL SBORKA\\MOS\\NDS0605 560 -16 R270
SYMATTR InstName U6
TEXT 288 488 Left 2 !.tran 0.02
